 Abaqus/Standard 3DEXPERIENCE R2017x                  DATE 14-8ÔÂ-2019 TIME 17:31:53
 SUMMARY OF JOB INFORMATION:
 STEP  INC ATT SEVERE EQUIL TOTAL  TOTAL      STEP       INC OF       DOF    IF
               DISCON ITERS ITERS  TIME/    TIME/LPF    TIME/LPF    MONITOR RIKS
               ITERS               FREQ
   1     1   1     0     1     1  0.100      0.100      0.1000    
   1     2   1     0     1     1  0.200      0.200      0.1000    
   1     3   1     0     1     1  0.350      0.350      0.1500    
   1     4   1     0     1     1  0.575      0.575      0.2250    
   1     5   1     0     1     1  0.913      0.913      0.3375    
   1     6   1     0     1     1  1.00       1.00       0.08750   
   2     1   1     0     1     1  1.10       0.100      0.1000    
   2     2   1     0     1     1  1.20       0.200      0.1000    
   2     3   1     0     1     1  1.30       0.300      0.1000    
   2     4   1     0     1     1  1.40       0.400      0.1000    
   2     5   1     0     1     1  1.50       0.500      0.1000    
   2     6   1     0     1     1  1.60       0.600      0.1000    
   2     7   1     0     1     1  1.70       0.700      0.1000    
   2     8   1     0     1     1  1.80       0.800      0.1000    
   2     9   1     0     1     1  1.90       0.900      0.1000    
   2    10   1     0     1     1  2.00       1.00       0.1000    
   2    11   1     0     1     1  2.10       1.10       0.1000    
   2    12   1     0     1     1  2.20       1.20       0.1000    
   2    13   1     0     1     1  2.30       1.30       0.1000    
   2    14   1     0     1     1  2.40       1.40       0.1000    
   2    15   1     0     1     1  2.50       1.50       0.1000    
   2    16   1     0     1     1  2.60       1.60       0.1000    
   2    17   1     0     1     1  2.70       1.70       0.1000    
   2    18   1     0     1     1  2.80       1.80       0.1000    
   2    19   1     0     1     1  2.90       1.90       0.1000    
   2    20   1     0     1     1  3.00       2.00       0.1000    
   2    21   1     0     1     1  3.10       2.10       0.1000    
   2    22   1     0     1     1  3.20       2.20       0.1000    
   2    23   1     0     1     1  3.30       2.30       0.1000    
   2    24   1     0     1     1  3.40       2.40       0.1000    
   2    25   1     0     1     1  3.50       2.50       0.1000    
   2    26   1     0     1     1  3.60       2.60       0.1000    
   2    27   1     0     1     1  3.70       2.70       0.1000    
   2    28   1     0     1     1  3.80       2.80       0.1000    
   2    29   1     0     1     1  3.90       2.90       0.1000    
   2    30   1     0     1     1  4.00       3.00       0.1000    
   2    31   1     0     1     1  4.10       3.10       0.1000    
   2    32   1     0     1     1  4.20       3.20       0.1000    
   2    33   1     0     1     1  4.30       3.30       0.1000    
   2    34   1     0     1     1  4.40       3.40       0.1000    
   2    35   1     0     1     1  4.50       3.50       0.1000    
   2    36   1     0     1     1  4.60       3.60       0.1000    
   2    37   1     0     1     1  4.70       3.70       0.1000    
   2    38   1     0     1     1  4.80       3.80       0.1000    
   2    39   1     0     1     1  4.90       3.90       0.1000    
   2    40   1     0     1     1  5.00       4.00       0.1000    
   2    41   1     0     1     1  5.10       4.10       0.1000    
   2    42   1     0     1     1  5.20       4.20       0.1000    
   2    43   1     0     1     1  5.30       4.30       0.1000    
   2    44   1     0     1     1  5.40       4.40       0.1000    
   2    45   1     0     1     1  5.50       4.50       0.1000    
   2    46   1     0     1     1  5.60       4.60       0.1000    
   2    47   1     0     1     1  5.70       4.70       0.1000    
   2    48   1     0     1     1  5.80       4.80       0.1000    
   2    49   1     0     1     1  5.90       4.90       0.1000    
   2    50   1     0     1     1  6.00       5.00       0.1000    
   2    51   1     0     1     1  6.10       5.10       0.1000    
   2    52   1     0     1     1  6.20       5.20       0.1000    
   2    53   1     0     1     1  6.30       5.30       0.1000    
   2    54   1     0     1     1  6.40       5.40       0.1000    
   2    55   1     0     1     1  6.50       5.50       0.1000    
   2    56   1     0     1     1  6.60       5.60       0.1000    
   2    57   1     0     1     1  6.70       5.70       0.1000    
   2    58   1     0     1     1  6.80       5.80       0.1000    
   2    59   1     0     1     1  6.90       5.90       0.1000    
   2    60   1     0     1     1  7.00       6.00       0.1000    
   2    61   1     0     1     1  7.10       6.10       0.1000    
   2    62   1     0     1     1  7.20       6.20       0.1000    
   2    63   1     0     1     1  7.30       6.30       0.1000    
   2    64   1     0     1     1  7.40       6.40       0.1000    
   2    65   1     0     1     1  7.50       6.50       0.1000    
   2    66   1     0     1     1  7.60       6.60       0.1000    
   2    67   1     0     1     1  7.70       6.70       0.1000    
   2    68   1     0     1     1  7.80       6.80       0.1000    
   2    69   1     0     1     1  7.90       6.90       0.1000    
   2    70   1     0     1     1  8.00       7.00       0.1000    
   2    71   1     0     1     1  8.10       7.10       0.1000    
   2    72   1     0     1     1  8.20       7.20       0.1000    
   2    73   1     0     1     1  8.30       7.30       0.1000    
   2    74   1     0     1     1  8.40       7.40       0.1000    
   2    75   1     0     1     1  8.50       7.50       0.1000    
   2    76   1     0     1     1  8.60       7.60       0.1000    
   2    77   1     0     1     1  8.70       7.70       0.1000    
   2    78   1     0     1     1  8.80       7.80       0.1000    
   2    79   1     0     1     1  8.90       7.90       0.1000    
   2    80   1     0     1     1  9.00       8.00       0.1000    
   2    81   1     0     1     1  9.10       8.10       0.1000    
   2    82   1     0     1     1  9.20       8.20       0.1000    
   2    83   1     0     1     1  9.30       8.30       0.1000    
   2    84   1     0     1     1  9.40       8.40       0.1000    
   2    85   1     0     1     1  9.50       8.50       0.1000    
   2    86   1     0     1     1  9.60       8.60       0.1000    
   2    87   1     0     1     1  9.70       8.70       0.1000    
   2    88   1     0     1     1  9.80       8.80       0.1000    
   2    89   1     0     1     1  9.90       8.90       0.1000    
   2    90   1     0     1     1  10.0       9.00       0.1000    
   2    91   1     0     1     1  10.1       9.10       0.1000    
   2    92   1     0     1     1  10.2       9.20       0.1000    
   2    93   1     0     1     1  10.3       9.30       0.1000    
   2    94   1     0     1     1  10.4       9.40       0.1000    
   2    95   1     0     1     1  10.5       9.50       0.1000    
   2    96   1     0     1     1  10.6       9.60       0.1000    
   2    97   1     0     1     1  10.7       9.70       0.1000    
   2    98   1     0     1     1  10.8       9.80       0.1000    
   2    99   1     0     1     1  10.9       9.90       0.1000    
   2   100   1     0     1     1  11.0       10.0       0.1000    
                          
 THE ANALYSIS HAS COMPLETED SUCCESSFULLY
