 Abaqus/Standard 3DEXPERIENCE R2017x                  DATE 15-7ÔÂ-2019 TIME 19:49:34
 SUMMARY OF JOB INFORMATION:
 STEP  INC ATT SEVERE EQUIL TOTAL  TOTAL      STEP       INC OF       DOF    IF
               DISCON ITERS ITERS  TIME/    TIME/LPF    TIME/LPF    MONITOR RIKS
               ITERS               FREQ
   1     1   1     0     1     1  1.00       1.00       1.000     
   2     1   1     0     1     1  1.10       0.100      0.1000    
   2     2   1     0     2     2  1.20       0.200      0.1000    
   2     3   1     0     2     2  1.30       0.300      0.1000    
   2     4   1     0     2     2  1.40       0.400      0.1000    
   2     5   1     0     2     2  1.50       0.500      0.1000    
   2     6   1     0     3     3  1.60       0.600      0.1000    
   2     7   1     0     3     3  1.70       0.700      0.1000    
   2     8   1     0     3     3  1.80       0.800      0.1000    
   2     9   1     0     4     4  1.90       0.900      0.1000    
   2    10   1     0     5     5  2.00       1.00       0.1000    
   3     1   1     0     1     1  2.10       0.100      0.1000    
   3     2   1U    0     4     4  2.10       0.100      0.1000    
   3     2   2     0     1     1  2.13       0.125      0.02500   
   3     3   1     0     1     1  2.16       0.163      0.03750   
   3     4   1     0     1     1  2.22       0.219      0.05625   
   3     5   1     0     1     1  2.30       0.303      0.08438   
   3     6   1     0     1     1  2.40       0.403      0.1000    
   3     7   1     0     1     1  2.50       0.503      0.1000    
   3     8   1     0     1     1  2.60       0.603      0.1000    
   3     9   1     0     1     1  2.70       0.703      0.1000    
   3    10   1     0     1     1  2.80       0.803      0.1000    
   3    11   1     0     1     1  2.90       0.903      0.1000    
   3    12   1     0     1     1  3.00       1.00       0.09688   
   4     1   1     0     1     1  3.10       0.100      0.1000    
   4     2   1     0     1     1  3.20       0.200      0.1000    
   4     3   1     0     1     1  3.30       0.300      0.1000    
   4     4   1     0     1     1  3.40       0.400      0.1000    
   4     5   1     0     1     1  3.50       0.500      0.1000    
   4     6   1     0     1     1  3.60       0.600      0.1000    
   4     7   1     0     5     5  3.70       0.700      0.1000    
   4     8   1     0     1     1  3.80       0.800      0.1000    
   4     9   1     0     1     1  3.90       0.900      0.1000    
   4    10   1     0     1     1  4.00       1.00       0.1000    
                          
 THE ANALYSIS HAS COMPLETED SUCCESSFULLY
