*Heading
** Job name: Job-1 Model name: Model-1
** Generated by: Abaqus/CAE 2017
*Preprint, echo=NO, model=NO, history=NO, contact=NO
**
** PARTS
**
*Part, name=Part-1
*Node
      1,         100.,         100.,          40.
      2,         100.,          95.,          40.
      3,         100.,          90.,          40.
      4,         100.,          85.,          40.
      5,         100.,          80.,          40.
      6,         100.,          75.,          40.
      7,         100.,          70.,          40.
      8,         100.,          65.,          40.
      9,         100.,          60.,          40.
     10,         100.,          55.,          40.
     11,         100.,          50.,          40.
     12,         100.,          45.,          40.
     13,         100.,          40.,          40.
     14,         100.,          35.,          40.
     15,         100.,          30.,          40.
     16,         100.,          25.,          40.
     17,         100.,          20.,          40.
     18,         100.,          15.,          40.
     19,         100.,          10.,          40.
     20,         100.,           5.,          40.
** ... 3949 like lines cut
*Element, type=C3D8
   1,  190,  191,  212,  211,    1,    2,   23,   22
   2,  191,  192,  213,  212,    2,    3,   24,   23
   3,  192,  193,  214,  213,    3,    4,   25,   24
   4,  193,  194,  215,  214,    4,    5,   26,   25
   5,  194,  195,  216,  215,    5,    6,   27,   26
   6,  195,  196,  217,  216,    6,    7,   28,   27
   7,  196,  197,  218,  217,    7,    8,   29,   28
   8,  197,  198,  219,  218,    8,    9,   30,   29
   9,  198,  199,  220,  219,    9,   10,   31,   30
  10,  199,  200,  221,  220,   10,   11,   32,   31
  11,  200,  201,  222,  221,   11,   12,   33,   32
  12,  201,  202,  223,  222,   12,   13,   34,   33
  13,  202,  203,  224,  223,   13,   14,   35,   34
  14,  203,  204,  225,  224,   14,   15,   36,   35
  15,  204,  205,  226,  225,   15,   16,   37,   36
  16,  205,  206,  227,  226,   16,   17,   38,   37
  17,  206,  207,  228,  227,   17,   18,   39,   38
  18,  207,  208,  229,  228,   18,   19,   40,   39
  19,  208,  209,  230,  229,   19,   20,   41,   40
  20,  209,  210,  231,  230,   20,   21,   42,   41
** ... 3180 like lines cut
*Nset, nset=Set-1, generate
    1,  3969,     1
*Elset, elset=Set-1, generate
    1,  3200,     1
** Section: Section-1
*Solid Section, elset=Set-1, material=MAT1
,
*End Part
**  
**
** ASSEMBLY
**
*Assembly, name=Assembly
**  
*Instance, name=Part-1-1, part=Part-1
*End Instance
**  
*Nset, nset=Set-1, instance=Part-1-1, generate
    1,  3969,     1
*Elset, elset=Set-1, instance=Part-1-1, generate
    1,  3200,     1
*Nset, nset=Set-2, instance=Part-1-1
  169,  170,  171,  172,  173,  174,  175,  176,  177,  178,  179,  180,  181,  182,  183,  184
  185,  186,  187,  188,  189,  358,  359,  360,  361,  362,  363,  364,  365,  366,  367,  368
  369,  370,  371,  372,  373,  374,  375,  376,  377,  378,  547,  548,  549,  550,  551,  552
  553,  554,  555,  556,  557,  558,  559,  560,  561,  562,  563,  564,  565,  566,  567,  736
  737,  738,  739,  740,  741,  742,  743,  744,  745,  746,  747,  748,  749,  750,  751,  752
  753,  754,  755,  756,  925,  926,  927,  928,  929,  930,  931,  932,  933,  934,  935,  936
  937,  938,  939,  940,  941,  942,  943,  944,  945, 1114, 1115, 1116, 1117, 1118, 1119, 1120
 1121, 1122, 1123, 1124, 1125, 1126, 1127, 1128, 1129, 1130, 1131, 1132, 1133, 1134, 1303, 1304
 1305, 1306, 1307, 1308, 1309, 1310, 1311, 1312, 1313, 1314, 1315, 1316, 1317, 1318, 1319, 1320
 1321, 1322, 1323, 1492, 1493, 1494, 1495, 1496, 1497, 1498, 1499, 1500, 1501, 1502, 1503, 1504
 1505, 1506, 1507, 1508, 1509, 1510, 1511, 1512, 1681, 1682, 1683, 1684, 1685, 1686, 1687, 1688
 1689, 1690, 1691, 1692, 1693, 1694, 1695, 1696, 1697, 1698, 1699, 1700, 1701, 1870, 1871, 1872
 1873, 1874, 1875, 1876, 1877, 1878, 1879, 1880, 1881, 1882, 1883, 1884, 1885, 1886, 1887, 1888
 1889, 1890, 2059, 2060, 2061, 2062, 2063, 2064, 2065, 2066, 2067, 2068, 2069, 2070, 2071, 2072
 2073, 2074, 2075, 2076, 2077, 2078, 2079, 2248, 2249, 2250, 2251, 2252, 2253, 2254, 2255, 2256
 2257, 2258, 2259, 2260, 2261, 2262, 2263, 2264, 2265, 2266, 2267, 2268, 2437, 2438, 2439, 2440
 2441, 2442, 2443, 2444, 2445, 2446, 2447, 2448, 2449, 2450, 2451, 2452, 2453, 2454, 2455, 2456
 2457, 2626, 2627, 2628, 2629, 2630, 2631, 2632, 2633, 2634, 2635, 2636, 2637, 2638, 2639, 2640
 2641, 2642, 2643, 2644, 2645, 2646, 2815, 2816, 2817, 2818, 2819, 2820, 2821, 2822, 2823, 2824
 2825, 2826, 2827, 2828, 2829, 2830, 2831, 2832, 2833, 2834, 2835, 3004, 3005, 3006, 3007, 3008
** ... 8 like lines cut
*Elset, elset=Set-2, instance=Part-1-1
  141,  142,  143,  144,  145,  146,  147,  148,  149,  150,  151,  152,  153,  154,  155,  156
  157,  158,  159,  160,  301,  302,  303,  304,  305,  306,  307,  308,  309,  310,  311,  312
  313,  314,  315,  316,  317,  318,  319,  320,  461,  462,  463,  464,  465,  466,  467,  468
  469,  470,  471,  472,  473,  474,  475,  476,  477,  478,  479,  480,  621,  622,  623,  624
  625,  626,  627,  628,  629,  630,  631,  632,  633,  634,  635,  636,  637,  638,  639,  640
  781,  782,  783,  784,  785,  786,  787,  788,  789,  790,  791,  792,  793,  794,  795,  796
  797,  798,  799,  800,  941,  942,  943,  944,  945,  946,  947,  948,  949,  950,  951,  952
  953,  954,  955,  956,  957,  958,  959,  960, 1101, 1102, 1103, 1104, 1105, 1106, 1107, 1108
 1109, 1110, 1111, 1112, 1113, 1114, 1115, 1116, 1117, 1118, 1119, 1120, 1261, 1262, 1263, 1264
 1265, 1266, 1267, 1268, 1269, 1270, 1271, 1272, 1273, 1274, 1275, 1276, 1277, 1278, 1279, 1280
 1421, 1422, 1423, 1424, 1425, 1426, 1427, 1428, 1429, 1430, 1431, 1432, 1433, 1434, 1435, 1436
 1437, 1438, 1439, 1440, 1581, 1582, 1583, 1584, 1585, 1586, 1587, 1588, 1589, 1590, 1591, 1592
 1593, 1594, 1595, 1596, 1597, 1598, 1599, 1600, 1741, 1742, 1743, 1744, 1745, 1746, 1747, 1748
 1749, 1750, 1751, 1752, 1753, 1754, 1755, 1756, 1757, 1758, 1759, 1760, 1901, 1902, 1903, 1904
 1905, 1906, 1907, 1908, 1909, 1910, 1911, 1912, 1913, 1914, 1915, 1916, 1917, 1918, 1919, 1920
 2061, 2062, 2063, 2064, 2065, 2066, 2067, 2068, 2069, 2070, 2071, 2072, 2073, 2074, 2075, 2076
 2077, 2078, 2079, 2080, 2221, 2222, 2223, 2224, 2225, 2226, 2227, 2228, 2229, 2230, 2231, 2232
 2233, 2234, 2235, 2236, 2237, 2238, 2239, 2240, 2381, 2382, 2383, 2384, 2385, 2386, 2387, 2388
 2389, 2390, 2391, 2392, 2393, 2394, 2395, 2396, 2397, 2398, 2399, 2400, 2541, 2542, 2543, 2544
 2545, 2546, 2547, 2548, 2549, 2550, 2551, 2552, 2553, 2554, 2555, 2556, 2557, 2558, 2559, 2560
** ... 5 like lines cut
*Nset, nset=Set-3, instance=Part-1-1
    1,    2,    3,    4,    5,    6,    7,    8,    9,   10,   11,   12,   13,   14,   15,   16
   17,   18,   19,   20,   21,   22,   23,   24,   25,   26,   27,   28,   29,   30,   31,   32
   33,   34,   35,   36,   37,   38,   39,   40,   41,   42,   43,   44,   45,   46,   47,   48
   49,   50,   51,   52,   53,   54,   55,   56,   57,   58,   59,   60,   61,   62,   63,   64
   65,   66,   67,   68,   69,   70,   71,   72,   73,   74,   75,   76,   77,   78,   79,   80
   81,   82,   83,   84,   85,   86,   87,   88,   89,   90,   91,   92,   93,   94,   95,   96
   97,   98,   99,  100,  101,  102,  103,  104,  105,  106,  107,  108,  109,  110,  111,  112
  113,  114,  115,  116,  117,  118,  119,  120,  121,  122,  123,  124,  125,  126,  127,  128
  129,  130,  131,  132,  133,  134,  135,  136,  137,  138,  139,  140,  141,  142,  143,  144
  145,  146,  147,  148,  149,  150,  151,  152,  153,  154,  155,  156,  157,  158,  159,  160
  161,  162,  163,  164,  165,  166,  167,  168,  169,  170,  171,  172,  173,  174,  175,  176
  177,  178,  179,  180,  181,  182,  183,  184,  185,  186,  187,  188,  189,  190,  210,  211
  231,  232,  252,  253,  273,  274,  294,  295,  315,  316,  336,  337,  357,  358,  378,  379
  399,  400,  420,  421,  441,  442,  462,  463,  483,  484,  504,  505,  525,  526,  546,  547
  567,  568,  588,  589,  609,  610,  630,  631,  651,  652,  672,  673,  693,  694,  714,  715
  735,  736,  756,  757,  777,  778,  798,  799,  819,  820,  840,  841,  861,  862,  882,  883
  903,  904,  924,  925,  945,  946,  966,  967,  987,  988, 1008, 1009, 1029, 1030, 1050, 1051
 1071, 1072, 1092, 1093, 1113, 1114, 1134, 1135, 1155, 1156, 1176, 1177, 1197, 1198, 1218, 1219
 1239, 1240, 1260, 1261, 1281, 1282, 1302, 1303, 1323, 1324, 1344, 1345, 1365, 1366, 1386, 1387
 1407, 1408, 1428, 1429, 1449, 1450, 1470, 1471, 1491, 1492, 1512, 1513, 1533, 1534, 1554, 1555
** ... 25 like lines cut
*Elset, elset=Set-3, instance=Part-1-1
    1,    2,    3,    4,    5,    6,    7,    8,    9,   10,   11,   12,   13,   14,   15,   16
   17,   18,   19,   20,   21,   22,   23,   24,   25,   26,   27,   28,   29,   30,   31,   32
   33,   34,   35,   36,   37,   38,   39,   40,   41,   42,   43,   44,   45,   46,   47,   48
   49,   50,   51,   52,   53,   54,   55,   56,   57,   58,   59,   60,   61,   62,   63,   64
   65,   66,   67,   68,   69,   70,   71,   72,   73,   74,   75,   76,   77,   78,   79,   80
   81,   82,   83,   84,   85,   86,   87,   88,   89,   90,   91,   92,   93,   94,   95,   96
   97,   98,   99,  100,  101,  102,  103,  104,  105,  106,  107,  108,  109,  110,  111,  112
  113,  114,  115,  116,  117,  118,  119,  120,  121,  122,  123,  124,  125,  126,  127,  128
  129,  130,  131,  132,  133,  134,  135,  136,  137,  138,  139,  140,  141,  142,  143,  144
  145,  146,  147,  148,  149,  150,  151,  152,  153,  154,  155,  156,  157,  158,  159,  160
  161,  180,  181,  200,  201,  220,  221,  240,  241,  260,  261,  280,  281,  300,  301,  320
  321,  340,  341,  360,  361,  380,  381,  400,  401,  420,  421,  440,  441,  460,  461,  480
  481,  500,  501,  520,  521,  540,  541,  560,  561,  580,  581,  600,  601,  620,  621,  640
  641,  660,  661,  680,  681,  700,  701,  720,  721,  740,  741,  760,  761,  780,  781,  800
  801,  820,  821,  840,  841,  860,  861,  880,  881,  900,  901,  920,  921,  940,  941,  960
  961,  980,  981, 1000, 1001, 1020, 1021, 1040, 1041, 1060, 1061, 1080, 1081, 1100, 1101, 1120
 1121, 1140, 1141, 1160, 1161, 1180, 1181, 1200, 1201, 1220, 1221, 1240, 1241, 1260, 1261, 1280
 1281, 1300, 1301, 1320, 1321, 1340, 1341, 1360, 1361, 1380, 1381, 1400, 1401, 1420, 1421, 1440
 1441, 1460, 1461, 1480, 1481, 1500, 1501, 1520, 1521, 1540, 1541, 1560, 1561, 1580, 1581, 1600
 1601, 1620, 1621, 1640, 1641, 1660, 1661, 1680, 1681, 1700, 1701, 1720, 1721, 1740, 1741, 1760
** ... 18 like lines cut
*Nset, nset=Set-4, instance=Part-1-1, generate
    1,  3969,     1
*Elset, elset=Set-4, instance=Part-1-1, generate
    1,  3200,     1
*Nset, nset=Set-5, instance=Part-1-1, generate
    1,  3969,     1
*Elset, elset=Set-5, instance=Part-1-1, generate
    1,  3200,     1
*Nset, nset=Set-6, instance=Part-1-1, generate
    1,  3969,     1
*Elset, elset=Set-6, instance=Part-1-1, generate
    1,  3200,     1
*Elset, elset=_Surf-1_S3, internal, instance=Part-1-1
    1,    2,    3,    4,    5,    6,    7,    8,    9,   10,   11,   12,   13,   14,   15,   16
   17,   18,   19,   20,  161,  162,  163,  164,  165,  166,  167,  168,  169,  170,  171,  172
  173,  174,  175,  176,  177,  178,  179,  180,  321,  322,  323,  324,  325,  326,  327,  328
  329,  330,  331,  332,  333,  334,  335,  336,  337,  338,  339,  340,  481,  482,  483,  484
  485,  486,  487,  488,  489,  490,  491,  492,  493,  494,  495,  496,  497,  498,  499,  500
  641,  642,  643,  644,  645,  646,  647,  648,  649,  650,  651,  652,  653,  654,  655,  656
  657,  658,  659,  660,  801,  802,  803,  804,  805,  806,  807,  808,  809,  810,  811,  812
  813,  814,  815,  816,  817,  818,  819,  820,  961,  962,  963,  964,  965,  966,  967,  968
  969,  970,  971,  972,  973,  974,  975,  976,  977,  978,  979,  980, 1121, 1122, 1123, 1124
 1125, 1126, 1127, 1128, 1129, 1130, 1131, 1132, 1133, 1134, 1135, 1136, 1137, 1138, 1139, 1140
 1281, 1282, 1283, 1284, 1285, 1286, 1287, 1288, 1289, 1290, 1291, 1292, 1293, 1294, 1295, 1296
 1297, 1298, 1299, 1300, 1441, 1442, 1443, 1444, 1445, 1446, 1447, 1448, 1449, 1450, 1451, 1452
 1453, 1454, 1455, 1456, 1457, 1458, 1459, 1460, 1601, 1602, 1603, 1604, 1605, 1606, 1607, 1608
 1609, 1610, 1611, 1612, 1613, 1614, 1615, 1616, 1617, 1618, 1619, 1620, 1761, 1762, 1763, 1764
 1765, 1766, 1767, 1768, 1769, 1770, 1771, 1772, 1773, 1774, 1775, 1776, 1777, 1778, 1779, 1780
 1921, 1922, 1923, 1924, 1925, 1926, 1927, 1928, 1929, 1930, 1931, 1932, 1933, 1934, 1935, 1936
 1937, 1938, 1939, 1940, 2081, 2082, 2083, 2084, 2085, 2086, 2087, 2088, 2089, 2090, 2091, 2092
 2093, 2094, 2095, 2096, 2097, 2098, 2099, 2100, 2241, 2242, 2243, 2244, 2245, 2246, 2247, 2248
 2249, 2250, 2251, 2252, 2253, 2254, 2255, 2256, 2257, 2258, 2259, 2260, 2401, 2402, 2403, 2404
 2405, 2406, 2407, 2408, 2409, 2410, 2411, 2412, 2413, 2414, 2415, 2416, 2417, 2418, 2419, 2420
** ... 5 like lines cut
*Surface, type=ELEMENT, name=Surf-1
_Surf-1_S3, S3
*End Assembly
** 
** MATERIALS
** 
*Material, name=MAT1
*Density
2.,
*Depvar
      1,
*Elastic, dependencies=1
    1.,   0.3, ,    1.
 1e+19,   0.3, , 1e+19
*User Defined Field
*Mohr Coulomb
38.,8.
*Mohr Coulomb Hardening
 0.1,0.
** ----------------------------------------------------------------
** 
** STEP: Step-1
** 
*Step, name=Step-1, nlgeom=NO
*Geostatic, utol
0.1, 1., 1e-05, 1.
** 
** BOUNDARY CONDITIONS
** 
** Name: BC-1 Type: Displacement/Rotation
*Boundary
Set-2, 1, 1
Set-2, 2, 2
Set-2, 3, 3
** Name: BC-2 Type: Displacement/Rotation
*Boundary
Set-3, 1, 1
Set-3, 2, 2
** 
** LOADS
** 
** Name: Load-2   Type: Body force
*Dload
Set-6, BZ, -20.
** 
** OUTPUT REQUESTS
** 
*Restart, write, frequency=0
** 
** FIELD OUTPUT: F-Output-1
** 
*Output, field
*Node Output
U, 
*Element Output, directions=YES
E, FV, S, SDV
*Output, history, frequency=0
*End Step
** ----------------------------------------------------------------
** 
** STEP: Step-2
** 
*Step, name=Step-2, nlgeom=NO
*Static
1., 1., 1e-05, 1.
** 
** LOADS
** 
** Name: Load-3   Type: Pressure
*Dsload
Surf-1, P, 50.
** 
** OUTPUT REQUESTS
** 
*Restart, write, frequency=0
** 
** FIELD OUTPUT: F-Output-1
** 
*Output, field
*Node Output
U, 
*Element Output, directions=YES
E, FV, S, SDV
*Output, history, frequency=0
*End Step
