 Abaqus/Standard 3DEXPERIENCE R2017x                  DATE 07-8ÔÂ-2019 TIME 15:43:42
 SUMMARY OF JOB INFORMATION:
 STEP  INC ATT SEVERE EQUIL TOTAL  TOTAL      STEP       INC OF       DOF    IF
               DISCON ITERS ITERS  TIME/    TIME/LPF    TIME/LPF    MONITOR RIKS
               ITERS               FREQ
   1     1   1     0     1     1  0.0200     0.0200     0.02000   
   1     2   1     0     1     1  0.0400     0.0400     0.02000   
   1     3   1     0     1     1  0.0600     0.0600     0.02000   
   1     4   1     0     1     1  0.0800     0.0800     0.02000   
   1     5   1     0     1     1  0.100      0.100      0.02000   
   1     6   1     0     1     1  0.120      0.120      0.02000   
   1     7   1     0     1     1  0.140      0.140      0.02000   
   1     8   1     0     1     1  0.160      0.160      0.02000   
   1     9   1     0     1     1  0.180      0.180      0.02000   
   1    10   1     0     1     1  0.200      0.200      0.02000   
   1    11   1     0     1     1  0.220      0.220      0.02000   
   1    12   1     0     1     1  0.240      0.240      0.02000   
   1    13   1     0     1     1  0.260      0.260      0.02000   
   1    14   1     0     1     1  0.280      0.280      0.02000   
   1    15   1     0     1     1  0.300      0.300      0.02000   
   1    16   1     0     1     1  0.320      0.320      0.02000   
   1    17   1     0     1     1  0.340      0.340      0.02000   
   1    18   1     0     1     1  0.360      0.360      0.02000   
   1    19   1     0     1     1  0.380      0.380      0.02000   
   1    20   1     0     1     1  0.400      0.400      0.02000   
   1    21   1     0     1     1  0.420      0.420      0.02000   
   1    22   1     0     1     1  0.440      0.440      0.02000   
   1    23   1     0     1     1  0.460      0.460      0.02000   
   1    24   1     0     1     1  0.480      0.480      0.02000   
   1    25   1     0     1     1  0.500      0.500      0.02000   
   1    26   1     0     1     1  0.520      0.520      0.02000   
   1    27   1     0     1     1  0.540      0.540      0.02000   
   1    28   1     0     1     1  0.560      0.560      0.02000   
   1    29   1     0     1     1  0.580      0.580      0.02000   
   1    30   1     0     1     1  0.600      0.600      0.02000   
   1    31   1     0     1     1  0.620      0.620      0.02000   
   1    32   1     0     1     1  0.640      0.640      0.02000   
   1    33   1     0     1     1  0.660      0.660      0.02000   
   1    34   1     0     1     1  0.680      0.680      0.02000   
   1    35   1     0     1     1  0.700      0.700      0.02000   
   1    36   1     0     1     1  0.720      0.720      0.02000   
   1    37   1     0     1     1  0.740      0.740      0.02000   
   1    38   1     0     1     1  0.760      0.760      0.02000   
   1    39   1     0     1     1  0.780      0.780      0.02000   
   1    40   1     0     1     1  0.800      0.800      0.02000   
   1    41   1     0     1     1  0.820      0.820      0.02000   
   1    42   1     0     1     1  0.840      0.840      0.02000   
   1    43   1     0     1     1  0.860      0.860      0.02000   
   1    44   1     0     1     1  0.880      0.880      0.02000   
   1    45   1     0     1     1  0.900      0.900      0.02000   
   1    46   1     0     1     1  0.920      0.920      0.02000   
   1    47   1     0     1     1  0.940      0.940      0.02000   
   1    48   1     0     1     1  0.960      0.960      0.02000   
   1    49   1     0     1     1  0.980      0.980      0.02000   
   1    50   1     0     1     1  1.00       1.00       0.02000   
   1    51   1     0     1     1  1.02       1.02       0.02000   
   1    52   1     0     1     1  1.04       1.04       0.02000   
   1    53   1     0     1     1  1.06       1.06       0.02000   
   1    54   1     0     1     1  1.08       1.08       0.02000   
   1    55   1     0     1     1  1.10       1.10       0.02000   
   1    56   1     0     1     1  1.12       1.12       0.02000   
   1    57   1     0     1     1  1.14       1.14       0.02000   
   1    58   1     0     1     1  1.16       1.16       0.02000   
   1    59   1     0     1     1  1.18       1.18       0.02000   
   1    60   1     0     1     1  1.20       1.20       0.02000   
   1    61   1     0     1     1  1.22       1.22       0.02000   
   1    62   1     0     1     1  1.24       1.24       0.02000   
   1    63   1     0     1     1  1.26       1.26       0.02000   
   1    64   1     0     1     1  1.28       1.28       0.02000   
   1    65   1     0     1     1  1.30       1.30       0.02000   
   1    66   1     0     1     1  1.32       1.32       0.02000   
   1    67   1     0     1     1  1.34       1.34       0.02000   
   1    68   1     0     1     1  1.36       1.36       0.02000   
   1    69   1     0     1     1  1.38       1.38       0.02000   
   1    70   1     0     1     1  1.40       1.40       0.02000   
   1    71   1     0     1     1  1.42       1.42       0.02000   
   1    72   1     0     1     1  1.44       1.44       0.02000   
   1    73   1     0     1     1  1.46       1.46       0.02000   
   1    74   1     0     1     1  1.48       1.48       0.02000   
   1    75   1     0     1     1  1.50       1.50       0.02000   
   1    76   1     0     1     1  1.52       1.52       0.02000   
   1    77   1     0     1     1  1.54       1.54       0.02000   
   1    78   1     0     1     1  1.56       1.56       0.02000   
   1    79   1     0     1     1  1.58       1.58       0.02000   
   1    80   1     0     1     1  1.60       1.60       0.02000   
   1    81   1     0     1     1  1.62       1.62       0.02000   
   1    82   1     0     1     1  1.64       1.64       0.02000   
   1    83   1     0     1     1  1.66       1.66       0.02000   
   1    84   1     0     1     1  1.68       1.68       0.02000   
   1    85   1     0     1     1  1.70       1.70       0.02000   
   1    86   1     0     1     1  1.72       1.72       0.02000   
   1    87   1     0     1     1  1.74       1.74       0.02000   
   1    88   1     0     1     1  1.76       1.76       0.02000   
   1    89   1     0     1     1  1.78       1.78       0.02000   
   1    90   1     0     1     1  1.80       1.80       0.02000   
   1    91   1     0     1     1  1.82       1.82       0.02000   
   1    92   1     0     1     1  1.84       1.84       0.02000   
   1    93   1     0     1     1  1.86       1.86       0.02000   
   1    94   1     0     1     1  1.88       1.88       0.02000   
   1    95   1     0     1     1  1.90       1.90       0.02000   
   1    96   1     0     1     1  1.92       1.92       0.02000   
   1    97   1     0     1     1  1.94       1.94       0.02000   
   1    98   1     0     1     1  1.96       1.96       0.02000   
   1    99   1     0     1     1  1.98       1.98       0.02000   
   1   100   1     0     1     1  2.00       2.00       0.02000   
   1   101   1     0     1     1  2.02       2.02       0.02000   
   1   102   1     0     1     1  2.04       2.04       0.02000   
   1   103   1     0     1     1  2.06       2.06       0.02000   
   1   104   1     0     1     1  2.08       2.08       0.02000   
   1   105   1     0     1     1  2.10       2.10       0.02000   
   1   106   1     0     1     1  2.12       2.12       0.02000   
   1   107   1     0     1     1  2.14       2.14       0.02000   
   1   108   1     0     1     1  2.16       2.16       0.02000   
   1   109   1     0     1     1  2.18       2.18       0.02000   
   1   110   1     0     1     1  2.20       2.20       0.02000   
   1   111   1     0     1     1  2.22       2.22       0.02000   
   1   112   1     0     1     1  2.24       2.24       0.02000   
   1   113   1     0     1     1  2.26       2.26       0.02000   
   1   114   1     0     1     1  2.28       2.28       0.02000   
   1   115   1     0     1     1  2.30       2.30       0.02000   
   1   116   1     0     1     1  2.32       2.32       0.02000   
   1   117   1     0     1     1  2.34       2.34       0.02000   
   1   118   1     0     1     1  2.36       2.36       0.02000   
   1   119   1     0     1     1  2.38       2.38       0.02000   
   1   120   1     0     1     1  2.40       2.40       0.02000   
   1   121   1     0     1     1  2.42       2.42       0.02000   
   1   122   1     0     1     1  2.44       2.44       0.02000   
   1   123   1     0     1     1  2.46       2.46       0.02000   
   1   124   1     0     1     1  2.48       2.48       0.02000   
   1   125   1     0     1     1  2.50       2.50       0.02000   
   1   126   1     0     1     1  2.52       2.52       0.02000   
   1   127   1     0     1     1  2.54       2.54       0.02000   
   1   128   1     0     1     1  2.56       2.56       0.02000   
   1   129   1     0     1     1  2.58       2.58       0.02000   
   1   130   1     0     1     1  2.60       2.60       0.02000   
   1   131   1     0     1     1  2.62       2.62       0.02000   
   1   132   1     0     1     1  2.64       2.64       0.02000   
   1   133   1     0     1     1  2.66       2.66       0.02000   
   1   134   1     0     1     1  2.68       2.68       0.02000   
   1   135   1     0     1     1  2.70       2.70       0.02000   
   1   136   1     0     1     1  2.72       2.72       0.02000   
   1   137   1     0     1     1  2.74       2.74       0.02000   
   1   138   1     0     1     1  2.76       2.76       0.02000   
   1   139   1     0     1     1  2.78       2.78       0.02000   
   1   140   1     0     1     1  2.80       2.80       0.02000   
   1   141   1     0     1     1  2.82       2.82       0.02000   
   1   142   1     0     1     1  2.84       2.84       0.02000   
   1   143   1     0     1     1  2.86       2.86       0.02000   
   1   144   1     0     1     1  2.88       2.88       0.02000   
   1   145   1     0     1     1  2.90       2.90       0.02000   
   1   146   1     0     1     1  2.92       2.92       0.02000   
   1   147   1     0     1     1  2.94       2.94       0.02000   
   1   148   1     0     1     1  2.96       2.96       0.02000   
   1   149   1     0     1     1  2.98       2.98       0.02000   
   1   150   1     0     1     1  3.00       3.00       0.02000   
   1   151   1     0     1     1  3.02       3.02       0.02000   
   1   152   1     0     1     1  3.04       3.04       0.02000   
   1   153   1     0     1     1  3.06       3.06       0.02000   
   1   154   1     0     1     1  3.08       3.08       0.02000   
   1   155   1     0     1     1  3.10       3.10       0.02000   
   1   156   1     0     1     1  3.12       3.12       0.02000   
   1   157   1     0     1     1  3.14       3.14       0.02000   
   1   158   1     0     1     1  3.16       3.16       0.02000   
   1   159   1     0     1     1  3.18       3.18       0.02000   
   1   160   1     0     1     1  3.20       3.20       0.02000   
   1   161   1     0     1     1  3.22       3.22       0.02000   
   1   162   1     0     1     1  3.24       3.24       0.02000   
   1   163   1     0     1     1  3.26       3.26       0.02000   
   1   164   1     0     1     1  3.28       3.28       0.02000   
   1   165   1     0     1     1  3.30       3.30       0.02000   
   1   166   1     0     1     1  3.32       3.32       0.02000   
   1   167   1     0     1     1  3.34       3.34       0.02000   
   1   168   1     0     1     1  3.36       3.36       0.02000   
   1   169   1     0     1     1  3.38       3.38       0.02000   
   1   170   1     0     1     1  3.40       3.40       0.02000   
   1   171   1     0     1     1  3.42       3.42       0.02000   
   1   172   1     0     1     1  3.44       3.44       0.02000   
   1   173   1     0     1     1  3.46       3.46       0.02000   
   1   174   1     0     1     1  3.48       3.48       0.02000   
   1   175   1     0     1     1  3.50       3.50       0.02000   
   1   176   1     0     1     1  3.52       3.52       0.02000   
   1   177   1     0     1     1  3.54       3.54       0.02000   
   1   178   1     0     1     1  3.56       3.56       0.02000   
   1   179   1     0     1     1  3.58       3.58       0.02000   
   1   180   1     0     1     1  3.60       3.60       0.02000   
   1   181   1     0     1     1  3.62       3.62       0.02000   
   1   182   1     0     1     1  3.64       3.64       0.02000   
   1   183   1     0     1     1  3.66       3.66       0.02000   
   1   184   1     0     1     1  3.68       3.68       0.02000   
   1   185   1     0     1     1  3.70       3.70       0.02000   
   1   186   1     0     1     1  3.72       3.72       0.02000   
   1   187   1     0     1     1  3.74       3.74       0.02000   
   1   188   1     0     1     1  3.76       3.76       0.02000   
   1   189   1     0     1     1  3.78       3.78       0.02000   
   1   190   1     0     1     1  3.80       3.80       0.02000   
   1   191   1     0     1     1  3.82       3.82       0.02000   
   1   192   1     0     1     1  3.84       3.84       0.02000   
   1   193   1     0     1     1  3.86       3.86       0.02000   
   1   194   1     0     1     1  3.88       3.88       0.02000   
   1   195   1     0     1     1  3.90       3.90       0.02000   
   1   196   1     0     1     1  3.92       3.92       0.02000   
   1   197   1     0     1     1  3.94       3.94       0.02000   
   1   198   1     0     1     1  3.96       3.96       0.02000   
   1   199   1     0     1     1  3.98       3.98       0.02000   
   1   200   1     0     1     1  4.00       4.00       0.02000   
   1   201   1     0     1     1  4.02       4.02       0.02000   
   1   202   1     0     1     1  4.04       4.04       0.02000   
   1   203   1     0     1     1  4.06       4.06       0.02000   
   1   204   1     0     1     1  4.08       4.08       0.02000   
   1   205   1     0     1     1  4.10       4.10       0.02000   
   1   206   1     0     1     1  4.12       4.12       0.02000   
   1   207   1     0     1     1  4.14       4.14       0.02000   
   1   208   1     0     1     1  4.16       4.16       0.02000   
   1   209   1     0     1     1  4.18       4.18       0.02000   
   1   210   1     0     1     1  4.20       4.20       0.02000   
   1   211   1     0     1     1  4.22       4.22       0.02000   
   1   212   1     0     1     1  4.24       4.24       0.02000   
   1   213   1     0     1     1  4.26       4.26       0.02000   
   1   214   1     0     1     1  4.28       4.28       0.02000   
   1   215   1     0     1     1  4.30       4.30       0.02000   
   1   216   1     0     1     1  4.32       4.32       0.02000   
   1   217   1     0     1     1  4.34       4.34       0.02000   
   1   218   1     0     1     1  4.36       4.36       0.02000   
   1   219   1     0     1     1  4.38       4.38       0.02000   
   1   220   1     0     1     1  4.40       4.40       0.02000   
   1   221   1     0     1     1  4.42       4.42       0.02000   
   1   222   1     0     1     1  4.44       4.44       0.02000   
   1   223   1     0     1     1  4.46       4.46       0.02000   
   1   224   1     0     1     1  4.48       4.48       0.02000   
   1   225   1     0     1     1  4.50       4.50       0.02000   
   1   226   1     0     1     1  4.52       4.52       0.02000   
   1   227   1     0     1     1  4.54       4.54       0.02000   
   1   228   1     0     1     1  4.56       4.56       0.02000   
   1   229   1     0     1     1  4.58       4.58       0.02000   
   1   230   1     0     1     1  4.60       4.60       0.02000   
   1   231   1     0     1     1  4.62       4.62       0.02000   
   1   232   1     0     1     1  4.64       4.64       0.02000   
   1   233   1     0     1     1  4.66       4.66       0.02000   
   1   234   1     0     1     1  4.68       4.68       0.02000   
   1   235   1     0     1     1  4.70       4.70       0.02000   
   1   236   1     0     1     1  4.72       4.72       0.02000   
   1   237   1     0     1     1  4.74       4.74       0.02000   
   1   238   1     0     1     1  4.76       4.76       0.02000   
   1   239   1     0     1     1  4.78       4.78       0.02000   
   1   240   1     0     1     1  4.80       4.80       0.02000   
   1   241   1     0     1     1  4.82       4.82       0.02000   
   1   242   1     0     1     1  4.84       4.84       0.02000   
   1   243   1     0     1     1  4.86       4.86       0.02000   
   1   244   1     0     1     1  4.88       4.88       0.02000   
   1   245   1     0     1     1  4.90       4.90       0.02000   
   1   246   1     0     1     1  4.92       4.92       0.02000   
   1   247   1     0     1     1  4.94       4.94       0.02000   
   1   248   1     0     1     1  4.96       4.96       0.02000   
   1   249   1     0     1     1  4.98       4.98       0.02000   
   1   250   1     0     1     1  5.00       5.00       0.02000   
   1   251   1     0     1     1  5.02       5.02       0.02000   
   1   252   1     0     1     1  5.04       5.04       0.02000   
   1   253   1     0     1     1  5.06       5.06       0.02000   
   1   254   1     0     1     1  5.08       5.08       0.02000   
   1   255   1     0     1     1  5.10       5.10       0.02000   
   1   256   1     0     1     1  5.12       5.12       0.02000   
   1   257   1     0     1     1  5.14       5.14       0.02000   
   1   258   1     0     1     1  5.16       5.16       0.02000   
   1   259   1     0     1     1  5.18       5.18       0.02000   
   1   260   1     0     1     1  5.20       5.20       0.02000   
   1   261   1     0     1     1  5.22       5.22       0.02000   
   1   262   1     0     1     1  5.24       5.24       0.02000   
   1   263   1     0     1     1  5.26       5.26       0.02000   
   1   264   1     0     1     1  5.28       5.28       0.02000   
   1   265   1     0     1     1  5.30       5.30       0.02000   
   1   266   1     0     1     1  5.32       5.32       0.02000   
   1   267   1     0     1     1  5.34       5.34       0.02000   
   1   268   1     0     1     1  5.36       5.36       0.02000   
   1   269   1     0     1     1  5.38       5.38       0.02000   
   1   270   1     0     1     1  5.40       5.40       0.02000   
   1   271   1     0     1     1  5.42       5.42       0.02000   
   1   272   1     0     1     1  5.44       5.44       0.02000   
   1   273   1     0     1     1  5.46       5.46       0.02000   
   1   274   1     0     1     1  5.48       5.48       0.02000   
   1   275   1     0     1     1  5.50       5.50       0.02000   
   1   276   1     0     1     1  5.52       5.52       0.02000   
   1   277   1     0     1     1  5.54       5.54       0.02000   
   1   278   1     0     1     1  5.56       5.56       0.02000   
   1   279   1     0     1     1  5.58       5.58       0.02000   
   1   280   1     0     1     1  5.60       5.60       0.02000   
   1   281   1     0     1     1  5.62       5.62       0.02000   
   1   282   1     0     1     1  5.64       5.64       0.02000   
   1   283   1     0     1     1  5.66       5.66       0.02000   
   1   284   1     0     1     1  5.68       5.68       0.02000   
   1   285   1     0     1     1  5.70       5.70       0.02000   
   1   286   1     0     1     1  5.72       5.72       0.02000   
   1   287   1     0     1     1  5.74       5.74       0.02000   
   1   288   1     0     1     1  5.76       5.76       0.02000   
   1   289   1     0     1     1  5.78       5.78       0.02000   
   1   290   1     0     1     1  5.80       5.80       0.02000   
   1   291   1     0     1     1  5.82       5.82       0.02000   
   1   292   1     0     1     1  5.84       5.84       0.02000   
   1   293   1     0     1     1  5.86       5.86       0.02000   
   1   294   1     0     1     1  5.88       5.88       0.02000   
   1   295   1     0     1     1  5.90       5.90       0.02000   
   1   296   1     0     1     1  5.92       5.92       0.02000   
   1   297   1     0     1     1  5.94       5.94       0.02000   
   1   298   1     0     1     1  5.96       5.96       0.02000   
   1   299   1     0     1     1  5.98       5.98       0.02000   
   1   300   1     0     1     1  6.00       6.00       0.02000   
   1   301   1     0     1     1  6.02       6.02       0.02000   
   1   302   1     0     1     1  6.04       6.04       0.02000   
   1   303   1     0     1     1  6.06       6.06       0.02000   
   1   304   1     0     1     1  6.08       6.08       0.02000   
   1   305   1     0     1     1  6.10       6.10       0.02000   
   1   306   1     0     1     1  6.12       6.12       0.02000   
   1   307   1     0     1     1  6.14       6.14       0.02000   
   1   308   1     0     1     1  6.16       6.16       0.02000   
   1   309   1     0     1     1  6.18       6.18       0.02000   
   1   310   1     0     1     1  6.20       6.20       0.02000   
   1   311   1     0     1     1  6.22       6.22       0.02000   
   1   312   1     0     1     1  6.24       6.24       0.02000   
   1   313   1     0     1     1  6.26       6.26       0.02000   
   1   314   1     0     1     1  6.28       6.28       0.02000   
   1   315   1     0     1     1  6.30       6.30       0.02000   
   1   316   1     0     1     1  6.32       6.32       0.02000   
   1   317   1     0     1     1  6.34       6.34       0.02000   
   1   318   1     0     1     1  6.36       6.36       0.02000   
   1   319   1     0     1     1  6.38       6.38       0.02000   
   1   320   1     0     1     1  6.40       6.40       0.02000   
   1   321   1     0     1     1  6.42       6.42       0.02000   
   1   322   1     0     1     1  6.44       6.44       0.02000   
   1   323   1     0     1     1  6.46       6.46       0.02000   
   1   324   1     0     1     1  6.48       6.48       0.02000   
   1   325   1     0     1     1  6.50       6.50       0.02000   
   1   326   1     0     1     1  6.52       6.52       0.02000   
   1   327   1     0     1     1  6.54       6.54       0.02000   
   1   328   1     0     1     1  6.56       6.56       0.02000   
   1   329   1     0     1     1  6.58       6.58       0.02000   
   1   330   1     0     1     1  6.60       6.60       0.02000   
   1   331   1     0     1     1  6.62       6.62       0.02000   
   1   332   1     0     1     1  6.64       6.64       0.02000   
   1   333   1     0     1     1  6.66       6.66       0.02000   
   1   334   1     0     1     1  6.68       6.68       0.02000   
   1   335   1     0     1     1  6.70       6.70       0.02000   
   1   336   1     0     1     1  6.72       6.72       0.02000   
   1   337   1     0     1     1  6.74       6.74       0.02000   
   1   338   1     0     1     1  6.76       6.76       0.02000   
   1   339   1     0     1     1  6.78       6.78       0.02000   
   1   340   1     0     1     1  6.80       6.80       0.02000   
   1   341   1     0     1     1  6.82       6.82       0.02000   
   1   342   1     0     1     1  6.84       6.84       0.02000   
   1   343   1     0     1     1  6.86       6.86       0.02000   
   1   344   1     0     1     1  6.88       6.88       0.02000   
   1   345   1     0     1     1  6.90       6.90       0.02000   
   1   346   1     0     1     1  6.92       6.92       0.02000   
   1   347   1     0     1     1  6.94       6.94       0.02000   
   1   348   1     0     1     1  6.96       6.96       0.02000   
   1   349   1     0     1     1  6.98       6.98       0.02000   
   1   350   1     0     1     1  7.00       7.00       0.02000   
   1   351   1     0     1     1  7.02       7.02       0.02000   
   1   352   1     0     1     1  7.04       7.04       0.02000   
   1   353   1     0     1     1  7.06       7.06       0.02000   
   1   354   1     0     1     1  7.08       7.08       0.02000   
   1   355   1     0     1     1  7.10       7.10       0.02000   
   1   356   1     0     1     1  7.12       7.12       0.02000   
   1   357   1     0     1     1  7.14       7.14       0.02000   
   1   358   1     0     1     1  7.16       7.16       0.02000   
   1   359   1     0     1     1  7.18       7.18       0.02000   
   1   360   1     0     1     1  7.20       7.20       0.02000   
   1   361   1     0     1     1  7.22       7.22       0.02000   
   1   362   1     0     1     1  7.24       7.24       0.02000   
   1   363   1     0     1     1  7.26       7.26       0.02000   
   1   364   1     0     1     1  7.28       7.28       0.02000   
   1   365   1     0     1     1  7.30       7.30       0.02000   
   1   366   1     0     1     1  7.32       7.32       0.02000   
   1   367   1     0     1     1  7.34       7.34       0.02000   
   1   368   1     0     1     1  7.36       7.36       0.02000   
   1   369   1     0     1     1  7.38       7.38       0.02000   
   1   370   1     0     1     1  7.40       7.40       0.02000   
   1   371   1     0     1     1  7.42       7.42       0.02000   
   1   372   1     0     1     1  7.44       7.44       0.02000   
   1   373   1     0     1     1  7.46       7.46       0.02000   
   1   374   1     0     1     1  7.48       7.48       0.02000   
   1   375   1     0     1     1  7.50       7.50       0.02000   
   1   376   1     0     1     1  7.52       7.52       0.02000   
   1   377   1     0     1     1  7.54       7.54       0.02000   
   1   378   1     0     1     1  7.56       7.56       0.02000   
   1   379   1     0     1     1  7.58       7.58       0.02000   
   1   380   1     0     1     1  7.60       7.60       0.02000   
   1   381   1     0     1     1  7.62       7.62       0.02000   
   1   382   1     0     1     1  7.64       7.64       0.02000   
   1   383   1     0     1     1  7.66       7.66       0.02000   
   1   384   1     0     1     1  7.68       7.68       0.02000   
   1   385   1     0     1     1  7.70       7.70       0.02000   
   1   386   1     0     1     1  7.72       7.72       0.02000   
   1   387   1     0     1     1  7.74       7.74       0.02000   
   1   388   1     0     1     1  7.76       7.76       0.02000   
   1   389   1     0     1     1  7.78       7.78       0.02000   
   1   390   1     0     1     1  7.80       7.80       0.02000   
   1   391   1     0     1     1  7.82       7.82       0.02000   
   1   392   1     0     1     1  7.84       7.84       0.02000   
   1   393   1     0     1     1  7.86       7.86       0.02000   
   1   394   1     0     1     1  7.88       7.88       0.02000   
   1   395   1     0     1     1  7.90       7.90       0.02000   
   1   396   1     0     1     1  7.92       7.92       0.02000   
   1   397   1     0     1     1  7.94       7.94       0.02000   
   1   398   1     0     1     1  7.96       7.96       0.02000   
   1   399   1     0     1     1  7.98       7.98       0.02000   
   1   400   1     0     1     1  8.00       8.00       0.02000   
   1   401   1     0     1     1  8.02       8.02       0.02000   
   1   402   1     0     1     1  8.04       8.04       0.02000   
   1   403   1     0     1     1  8.06       8.06       0.02000   
   1   404   1     0     1     1  8.08       8.08       0.02000   
   1   405   1     0     1     1  8.10       8.10       0.02000   
   1   406   1     0     1     1  8.12       8.12       0.02000   
   1   407   1     0     1     1  8.14       8.14       0.02000   
   1   408   1     0     1     1  8.16       8.16       0.02000   
   1   409   1     0     1     1  8.18       8.18       0.02000   
   1   410   1     0     1     1  8.20       8.20       0.02000   
   1   411   1     0     1     1  8.22       8.22       0.02000   
   1   412   1     0     1     1  8.24       8.24       0.02000   
   1   413   1     0     1     1  8.26       8.26       0.02000   
   1   414   1     0     1     1  8.28       8.28       0.02000   
   1   415   1     0     1     1  8.30       8.30       0.02000   
   1   416   1     0     1     1  8.32       8.32       0.02000   
   1   417   1     0     1     1  8.34       8.34       0.02000   
   1   418   1     0     1     1  8.36       8.36       0.02000   
   1   419   1     0     1     1  8.38       8.38       0.02000   
   1   420   1     0     1     1  8.40       8.40       0.02000   
   1   421   1     0     1     1  8.42       8.42       0.02000   
   1   422   1     0     1     1  8.44       8.44       0.02000   
   1   423   1     0     1     1  8.46       8.46       0.02000   
   1   424   1     0     1     1  8.48       8.48       0.02000   
   1   425   1     0     1     1  8.50       8.50       0.02000   
   1   426   1     0     1     1  8.52       8.52       0.02000   
   1   427   1     0     1     1  8.54       8.54       0.02000   
   1   428   1     0     1     1  8.56       8.56       0.02000   
   1   429   1     0     1     1  8.58       8.58       0.02000   
   1   430   1     0     1     1  8.60       8.60       0.02000   
   1   431   1     0     1     1  8.62       8.62       0.02000   
   1   432   1     0     1     1  8.64       8.64       0.02000   
   1   433   1     0     1     1  8.66       8.66       0.02000   
   1   434   1     0     1     1  8.68       8.68       0.02000   
   1   435   1     0     1     1  8.70       8.70       0.02000   
   1   436   1     0     1     1  8.72       8.72       0.02000   
   1   437   1     0     1     1  8.74       8.74       0.02000   
   1   438   1     0     1     1  8.76       8.76       0.02000   
   1   439   1     0     1     1  8.78       8.78       0.02000   
   1   440   1     0     1     1  8.80       8.80       0.02000   
   1   441   1     0     1     1  8.82       8.82       0.02000   
   1   442   1     0     1     1  8.84       8.84       0.02000   
   1   443   1     0     1     1  8.86       8.86       0.02000   
   1   444   1     0     1     1  8.88       8.88       0.02000   
   1   445   1     0     1     1  8.90       8.90       0.02000   
   1   446   1     0     1     1  8.92       8.92       0.02000   
   1   447   1     0     1     1  8.94       8.94       0.02000   
   1   448   1     0     1     1  8.96       8.96       0.02000   
   1   449   1     0     1     1  8.98       8.98       0.02000   
   1   450   1     0     1     1  9.00       9.00       0.02000   
   1   451   1     0     1     1  9.02       9.02       0.02000   
   1   452   1     0     1     1  9.04       9.04       0.02000   
   1   453   1     0     1     1  9.06       9.06       0.02000   
   1   454   1     0     1     1  9.08       9.08       0.02000   
   1   455   1     0     1     1  9.10       9.10       0.02000   
   1   456   1     0     1     1  9.12       9.12       0.02000   
   1   457   1     0     1     1  9.14       9.14       0.02000   
   1   458   1     0     1     1  9.16       9.16       0.02000   
   1   459   1     0     1     1  9.18       9.18       0.02000   
   1   460   1     0     1     1  9.20       9.20       0.02000   
   1   461   1     0     1     1  9.22       9.22       0.02000   
   1   462   1     0     1     1  9.24       9.24       0.02000   
   1   463   1     0     1     1  9.26       9.26       0.02000   
   1   464   1     0     1     1  9.28       9.28       0.02000   
   1   465   1     0     1     1  9.30       9.30       0.02000   
   1   466   1     0     1     1  9.32       9.32       0.02000   
   1   467   1     0     1     1  9.34       9.34       0.02000   
   1   468   1     0     1     1  9.36       9.36       0.02000   
   1   469   1     0     1     1  9.38       9.38       0.02000   
   1   470   1     0     1     1  9.40       9.40       0.02000   
   1   471   1     0     1     1  9.42       9.42       0.02000   
   1   472   1     0     1     1  9.44       9.44       0.02000   
   1   473   1     0     1     1  9.46       9.46       0.02000   
   1   474   1     0     1     1  9.48       9.48       0.02000   
   1   475   1     0     1     1  9.50       9.50       0.02000   
   1   476   1     0     1     1  9.52       9.52       0.02000   
   1   477   1     0     1     1  9.54       9.54       0.02000   
   1   478   1     0     1     1  9.56       9.56       0.02000   
   1   479   1     0     1     1  9.58       9.58       0.02000   
   1   480   1     0     1     1  9.60       9.60       0.02000   
   1   481   1     0     1     1  9.62       9.62       0.02000   
   1   482   1     0     1     1  9.64       9.64       0.02000   
   1   483   1     0     1     1  9.66       9.66       0.02000   
   1   484   1     0     1     1  9.68       9.68       0.02000   
   1   485   1     0     1     1  9.70       9.70       0.02000   
   1   486   1     0     1     1  9.72       9.72       0.02000   
   1   487   1     0     1     1  9.74       9.74       0.02000   
   1   488   1     0     1     1  9.76       9.76       0.02000   
   1   489   1     0     1     1  9.78       9.78       0.02000   
   1   490   1     0     1     1  9.80       9.80       0.02000   
   1   491   1     0     1     1  9.82       9.82       0.02000   
   1   492   1     0     1     1  9.84       9.84       0.02000   
   1   493   1     0     1     1  9.86       9.86       0.02000   
   1   494   1     0     1     1  9.88       9.88       0.02000   
   1   495   1     0     1     1  9.90       9.90       0.02000   
   1   496   1     0     1     1  9.92       9.92       0.02000   
   1   497   1     0     1     1  9.94       9.94       0.02000   
   1   498   1     0     1     1  9.96       9.96       0.02000   
   1   499   1     0     1     1  9.98       9.98       0.02000   
   1   500   1     0     1     1  10.0       10.0       0.02000   
                          
 THE ANALYSIS HAS COMPLETED SUCCESSFULLY
